Version 4
SHEET 1 2692 1432
WIRE -432 256 -576 256
WIRE -192 256 -352 256
WIRE -96 256 -192 256
WIRE 480 256 160 256
WIRE 576 256 480 256
WIRE 752 256 656 256
WIRE 912 256 752 256
WIRE -1056 272 -1200 272
WIRE -816 272 -976 272
WIRE -192 320 -192 256
WIRE -96 320 -96 256
WIRE 752 320 752 256
WIRE 912 320 912 256
WIRE -816 336 -816 272
WIRE 160 336 160 256
WIRE 480 336 480 256
WIRE -576 352 -576 256
WIRE -1200 368 -1200 272
WIRE -96 400 -96 384
WIRE 912 400 912 384
WIRE -576 512 -576 432
WIRE -192 512 -192 384
WIRE -192 512 -576 512
WIRE -96 512 -96 480
WIRE -96 512 -192 512
WIRE 160 512 160 416
WIRE 480 512 480 400
WIRE 480 512 160 512
WIRE 752 512 752 384
WIRE 752 512 480 512
WIRE 912 512 912 480
WIRE 912 512 752 512
WIRE -1200 528 -1200 448
WIRE -816 528 -816 400
WIRE -816 528 -1200 528
WIRE 160 544 160 512
WIRE -576 560 -576 512
WIRE -1200 576 -1200 528
WIRE 480 800 128 800
WIRE 592 800 480 800
WIRE 784 800 672 800
WIRE 896 800 784 800
WIRE 1056 800 896 800
WIRE 1184 800 1136 800
WIRE 1344 800 1264 800
WIRE 1440 800 1344 800
WIRE 1600 800 1520 800
WIRE 1696 800 1600 800
WIRE -1072 832 -1216 832
WIRE -832 832 -992 832
WIRE -736 832 -832 832
WIRE -496 832 -656 832
WIRE -400 832 -496 832
WIRE 896 864 896 800
WIRE 1696 864 1696 800
WIRE 128 880 128 800
WIRE -832 896 -832 832
WIRE -496 896 -496 832
WIRE -400 896 -400 832
WIRE 592 896 592 800
WIRE 672 896 672 800
WIRE 1184 896 1184 800
WIRE 1264 896 1264 800
WIRE 1440 896 1440 800
WIRE 1520 896 1520 800
WIRE 480 912 480 800
WIRE 784 912 784 800
WIRE 1344 912 1344 800
WIRE 1600 912 1600 800
WIRE -1216 928 -1216 832
WIRE 896 944 896 928
WIRE 976 944 896 944
WIRE 1696 944 1696 928
WIRE 896 960 896 944
WIRE -400 976 -400 960
WIRE 128 1072 128 960
WIRE 480 1072 480 976
WIRE 480 1072 128 1072
WIRE 592 1072 592 976
WIRE 592 1072 480 1072
WIRE 672 1072 672 976
WIRE 784 1072 784 976
WIRE 784 1072 672 1072
WIRE 896 1072 896 1024
WIRE 896 1072 784 1072
WIRE 1056 1072 896 1072
WIRE 1184 1072 1184 976
WIRE 1184 1072 1136 1072
WIRE 1264 1072 1264 976
WIRE 1344 1072 1344 976
WIRE 1344 1072 1264 1072
WIRE 1440 1072 1440 976
WIRE 1440 1072 1344 1072
WIRE 1520 1072 1520 976
WIRE 1600 1072 1600 976
WIRE 1600 1072 1520 1072
WIRE 1696 1072 1696 1024
WIRE 1696 1072 1600 1072
WIRE -1216 1088 -1216 1008
WIRE -832 1088 -832 960
WIRE -832 1088 -1216 1088
WIRE -496 1088 -496 960
WIRE -496 1088 -832 1088
WIRE -400 1088 -400 1056
WIRE -400 1088 -496 1088
WIRE 480 1104 480 1072
WIRE -1216 1136 -1216 1088
WIRE 976 1168 976 944
FLAG -1200 576 0
FLAG -576 560 0
FLAG 160 544 0
FLAG -1216 1136 0
FLAG 976 1168 0
FLAG 480 1104 0
DATAFLAG -1200 528 ""
DATAFLAG -1200 528 ""
DATAFLAG -576 512 ""
DATAFLAG -576 512 ""
DATAFLAG 160 496 ""
DATAFLAG 160 496 ""
DATAFLAG -1216 1088 ""
DATAFLAG -1216 1088 ""
DATAFLAG -864 272 ""
SYMBOL voltage -1200 352 R0
WINDOW 3 44 50 Left 2
WINDOW 123 47 85 Left 2
WINDOW 39 45 113 Left 2
SYMATTR Value SINE(0 230 50)
SYMATTR Value2 AC 230 0
SYMATTR SpiceLine Rser=1e-2 Cpar=1e-9
SYMATTR InstName V1
SYMBOL ind -1072 288 R270
WINDOW 0 32 56 VTop 2
WINDOW 3 5 56 VBottom 2
SYMATTR InstName L1
SYMATTR Value 1.9u
SYMBOL cap -832 336 R0
SYMATTR InstName C1
SYMATTR Value 0.1u
SYMBOL voltage -576 336 R0
WINDOW 3 44 50 Left 2
WINDOW 123 47 85 Left 2
WINDOW 39 45 113 Left 2
SYMATTR Value SINE(0 230 50)
SYMATTR Value2 AC 230 0
SYMATTR SpiceLine Rser=1e-2 Cpar=1e-9
SYMATTR InstName V2
SYMBOL ind -448 272 R270
WINDOW 0 32 56 VTop 2
WINDOW 3 5 56 VBottom 2
SYMATTR InstName L2
SYMATTR Value 1.9u
SYMATTR SpiceLine Ipk=30 Rser=1e-9
SYMBOL cap -208 320 R0
SYMATTR InstName C2
SYMATTR Value 0.1u
SYMBOL res -112 384 R0
SYMATTR InstName R1
SYMATTR Value 6
SYMBOL cap -112 320 R0
SYMATTR InstName C3
SYMATTR Value 100u
SYMBOL voltage 160 320 R0
WINDOW 3 44 50 Left 2
WINDOW 123 47 85 Left 2
WINDOW 39 45 113 Left 2
SYMATTR Value SINE(0 230 50)
SYMATTR Value2 AC 230 0
SYMATTR SpiceLine Rser=1e-2 Cpar=1e-9
SYMATTR InstName V3
SYMBOL res 896 384 R0
SYMATTR InstName R2
SYMATTR Value 6
SYMBOL cap 896 320 R0
SYMATTR InstName C5
SYMATTR Value 100u
SYMBOL cap 464 336 R0
SYMATTR InstName C6
SYMATTR Value 0.1u
SYMBOL cap 736 320 R0
SYMATTR InstName C9
SYMATTR Value 0.1u
SYMBOL ind2 672 240 R90
WINDOW 0 27 -14 VBottom 2
WINDOW 3 -29 53 VTop 2
SYMATTR InstName L4
SYMATTR Value 1.9u
SYMATTR Type ind
SYMBOL voltage -1216 912 R0
WINDOW 3 44 50 Left 2
WINDOW 123 47 85 Left 2
WINDOW 39 45 113 Left 2
SYMATTR Value SINE(0 230 50)
SYMATTR Value2 AC 230 0
SYMATTR SpiceLine Rser=1e-2 Cpar=1e-9
SYMATTR InstName V4
SYMBOL ind -1088 848 R270
WINDOW 0 32 56 VTop 2
WINDOW 3 5 56 VBottom 2
SYMATTR InstName L3
SYMATTR Value 1.9u
SYMATTR SpiceLine Ipk=30 Rser=1e-9
SYMBOL cap -848 896 R0
SYMATTR InstName C4
SYMATTR Value 0.1u
SYMBOL res -416 960 R0
SYMATTR InstName R3
SYMATTR Value 4
SYMBOL cap -416 896 R0
SYMATTR InstName C7
SYMATTR Value 100u
SYMBOL ind -752 848 R270
WINDOW 0 32 56 VTop 2
WINDOW 3 5 56 VBottom 2
SYMATTR InstName L5
SYMATTR Value 1.9u
SYMATTR SpiceLine Ipk=30 Rser=1e-9
SYMBOL cap -512 896 R0
SYMATTR InstName C8
SYMATTR Value 0.1u
SYMBOL voltage 128 864 R0
WINDOW 3 44 50 Left 2
WINDOW 123 47 85 Left 2
WINDOW 39 45 113 Left 2
SYMATTR Value SINE(0 230 50)
SYMATTR Value2 AC 230 0
SYMATTR SpiceLine Rser=1e-2 Cpar=1e-9
SYMATTR InstName V5
SYMBOL cap 1328 912 R0
SYMATTR InstName C13
SYMATTR Value 0.47u
SYMBOL cap 464 912 R0
SYMATTR InstName Cin
SYMATTR Value 1u
SYMBOL cap 880 864 R0
SYMATTR InstName Cy1
SYMATTR Value 4.7n
SYMBOL cap 880 960 R0
SYMATTR InstName Cy2
SYMATTR Value 4.7n
SYMBOL ind2 688 880 R90
WINDOW 0 4 56 VBottom 2
WINDOW 3 32 56 VTop 2
SYMATTR InstName L6
SYMATTR Value 0.75m
SYMATTR SpiceLine Ipk=30 Rser=1e-9
SYMATTR Type ind
SYMBOL ind2 576 992 R270
WINDOW 0 32 56 VTop 2
WINDOW 3 4 56 VBottom 2
SYMATTR InstName L7
SYMATTR Value 0.75m
SYMATTR SpiceLine Ipk=30 Rser=1e-9
SYMATTR Type ind
SYMBOL ind2 1280 880 R90
WINDOW 0 4 56 VBottom 2
WINDOW 3 32 56 VTop 2
SYMATTR InstName L8
SYMATTR Value 0.75m
SYMATTR SpiceLine Ipk=30 Rser=1e-9
SYMATTR Type ind
SYMBOL ind2 1280 960 R90
WINDOW 0 4 56 VBottom 2
WINDOW 3 32 56 VTop 2
SYMATTR InstName L9
SYMATTR Value 0.75m
SYMATTR SpiceLine Ipk=30 Rser=1e-9
SYMATTR Type ind
SYMBOL cap 768 912 R0
SYMATTR InstName Cin1
SYMATTR Value 1u
SYMBOL ind2 1152 784 R90
WINDOW 0 4 56 VBottom 2
WINDOW 3 32 56 VTop 2
SYMATTR InstName L10
SYMATTR Value 10u
SYMATTR SpiceLine Ipk=30 Rser=1e-9
SYMATTR Type ind
SYMBOL ind2 1040 1088 R270
WINDOW 0 32 56 VTop 2
WINDOW 3 5 56 VBottom 2
SYMATTR InstName L11
SYMATTR Value 10u
SYMATTR SpiceLine Ipk=30 Rser=1e-9
SYMATTR Type ind
SYMBOL cap 1584 912 R0
SYMATTR InstName Cin2
SYMATTR Value 0.1u
SYMBOL ind2 1536 960 R90
WINDOW 0 4 56 VBottom 2
WINDOW 3 32 56 VTop 2
SYMATTR InstName L12
SYMATTR Value 450u
SYMATTR Type ind
SYMBOL ind2 1536 880 R90
WINDOW 0 4 56 VBottom 2
WINDOW 3 32 56 VTop 2
SYMATTR InstName L13
SYMATTR Value 450u
SYMATTR Type ind
SYMBOL res 1680 928 R0
SYMATTR InstName R7
SYMATTR Value 125
SYMBOL cap 1680 864 R0
SYMATTR InstName C10
SYMATTR Value 10u
TEXT -1128 184 Left 3 ;LC Undamped
TEXT -1240 600 Left 2 ;.tran 0 10 0 1e-3
TEXT -504 168 Left 3 ;LC damped
TEXT -616 584 Left 2 ;.tran 0 10 0 1e-3
TEXT -1240 632 Left 2 !.ac dec 20 1 1e9
TEXT 232 168 Left 3 ;Pi damped
TEXT 120 568 Left 2 ;.tran 0 10 0 1e-3
TEXT -1144 744 Left 3 ;Cascaded LC damped
TEXT -1256 1160 Left 2 ;.tran 0 10 0 1e-3
TEXT 200 712 Left 3 ;Real Model
TEXT 88 1112 Left 2 ;.tran 0 10 0 1e-3
TEXT 536 1088 Left 2 !K67 L6 L7 0.75m
TEXT 1176 1088 Left 2 !K89 L8 L9 0.75m
TEXT 608 808 Left 2 ;DMC
TEXT 1200 808 Left 2 ;CMC
TEXT 1432 1088 Left 2 !K1213 L13 L12 450u
