Version 4
SHEET 1 880 680
WIRE -288 0 -336 0
WIRE -160 0 -208 0
WIRE -64 0 -160 0
WIRE 80 0 32 0
WIRE 128 0 80 0
WIRE 288 0 208 0
WIRE 400 0 288 0
WIRE 560 0 400 0
WIRE 80 16 80 0
WIRE 400 16 400 0
WIRE -336 48 -336 0
WIRE 560 48 560 0
WIRE -160 64 -160 0
WIRE -64 64 -64 0
WIRE 32 64 32 0
WIRE 32 64 16 64
WIRE 128 64 128 0
WIRE 208 64 208 0
WIRE 288 64 288 0
WIRE 400 96 400 80
WIRE 32 144 16 144
WIRE -336 192 -336 128
WIRE -160 192 -160 128
WIRE -160 192 -336 192
WIRE -64 192 -64 144
WIRE -64 192 -160 192
WIRE 32 192 32 144
WIRE 112 192 32 192
WIRE 128 192 128 144
WIRE 128 192 112 192
WIRE 208 192 208 144
WIRE 288 192 288 128
WIRE 288 192 208 192
WIRE 400 192 400 176
WIRE 400 192 288 192
WIRE 560 192 560 128
WIRE 560 192 400 192
WIRE 112 224 112 192
WIRE -336 256 -336 192
WIRE 560 256 560 192
WIRE 80 288 80 80
WIRE 112 288 80 288
WIRE 80 320 80 288
FLAG 80 320 0
FLAG -336 256 0
FLAG 560 256 0
SYMBOL ind2 32 48 R90
WINDOW 0 5 56 VBottom 2
WINDOW 3 32 56 VTop 2
SYMATTR InstName L1
SYMATTR Value 0.75m
SYMATTR SpiceLine Ipk=1.4 Rser=0.00127 Rpar=0.0016970 Cpar=1.698p
SYMATTR Type ind
SYMBOL ind2 32 128 R90
WINDOW 0 4 56 VBottom 2
WINDOW 3 32 56 VTop 2
SYMATTR InstName L2
SYMATTR Value 0.75m
SYMATTR SpiceLine Ipk=1.4 Rser=0.00127 Rpar=0.006970 Cpar=1.698p
SYMATTR Type ind
SYMBOL ind2 224 48 R90
WINDOW 0 5 56 VBottom 2
WINDOW 3 32 56 VTop 2
SYMATTR InstName L3
SYMATTR Value 450u
SYMATTR SpiceLine Ipk=5.3 Rser=0.0019 Rpar=0.0005421 Cpar=1.011p
SYMATTR Type ind
SYMBOL ind2 224 128 R90
WINDOW 0 4 56 VBottom 2
WINDOW 3 32 56 VTop 2
SYMATTR InstName L4
SYMATTR Value 450u
SYMATTR SpiceLine Ipk=5.3 Rser=0.019 Rpar=0.005421 Cpar=1.011p
SYMATTR Type ind
SYMBOL polcap 64 16 R0
WINDOW 3 24 56 Left 2
SYMATTR Value 1.5u
SYMATTR InstName C1
SYMATTR Description Capacitor
SYMATTR Type cap
SYMATTR SpiceLine V=16 Irms=0 Rser=8 Lser=0 mfg="AVX" pn="TAJA155K016" type="Tantalum"
SYMBOL polcap 96 224 R0
WINDOW 3 24 56 Left 2
SYMATTR Value 1.5u
SYMATTR InstName C2
SYMATTR Description Capacitor
SYMATTR Type cap
SYMATTR SpiceLine V=16 Irms=0 Rser=8 Lser=0 mfg="AVX" pn="TAJA155K016" type="Tantalum"
SYMBOL polcap 384 16 R0
WINDOW 3 24 56 Left 2
SYMATTR Value 100u
SYMATTR InstName C4
SYMATTR Description Capacitor
SYMATTR Type cap
SYMATTR SpiceLine V=16 Irms=0 Rser=0.1 Lser=0 mfg="AVX" pn="TPSE107M016R0100" type="Tantalum"
SYMBOL res 384 80 R0
SYMATTR InstName R1
SYMATTR Value 100
SYMATTR SpiceLine tol=1 pwr=0.1
SYMBOL polcap -176 64 R0
WINDOW 3 24 56 Left 2
SYMATTR Value 1u
SYMATTR InstName C5
SYMATTR Description Capacitor
SYMATTR Type cap
SYMATTR SpiceLine V=6.3 Irms=0 Rser=4 Lser=0
SYMBOL voltage -336 32 R0
WINDOW 3 24 96 Left 1
WINDOW 123 0 0 Left 0
WINDOW 39 0 0 Left 0
SYMATTR Value SINE(0 230 50 0 0 0 0)
SYMATTR InstName V1
SYMBOL polcap 272 64 R0
WINDOW 3 24 56 Left 2
SYMATTR Value 10u
SYMATTR InstName C3
SYMATTR Description Capacitor
SYMATTR Type cap
SYMATTR SpiceLine V=6.3 Irms=0 Rser=4 Lser=0 mfg="AVX" pn="TAJA106M006" type="Tantalum"
SYMBOL res 576 144 R180
WINDOW 0 36 76 Left 2
WINDOW 3 36 40 Left 2
SYMATTR InstName Load
SYMATTR Value 1
SYMBOL res -192 -16 R90
WINDOW 0 0 56 VBottom 2
WINDOW 3 32 56 VTop 2
SYMATTR InstName R3
SYMATTR Value 0.01
TEXT -368 344 Left 2 !.tran 0 10 2 1e-3
TEXT -112 216 Left 1 !K1 L1 L2 1.5e-6
TEXT 168 208 Left 1 !K2 L3 L4 1.5e-6
