Version 4
SHEET 1 880 680
WIRE 208 0 -64 0
WIRE -64 48 -64 0
WIRE 288 64 288 0
WIRE -64 192 -64 128
WIRE 288 192 288 128
WIRE 288 192 -64 192
WIRE -64 256 -64 192
FLAG -64 256 0
SYMBOL voltage -64 32 R0
WINDOW 3 24 96 Left 1
WINDOW 123 0 0 Left 0
WINDOW 39 0 0 Left 0
SYMATTR Value SINE(0 240 50 0 0 0 0)
SYMATTR InstName V1
SYMBOL polcap 272 64 R0
WINDOW 3 24 56 Left 2
SYMATTR Value 0.1u
SYMATTR InstName C3
SYMATTR Description Capacitor
SYMATTR Type cap
SYMATTR SpiceLine V=0 Irms=0 Rser=0 Lser=0
SYMBOL ind 192 16 R270
WINDOW 0 32 56 VTop 2
WINDOW 3 5 56 VBottom 2
SYMATTR InstName L1
SYMATTR Value 1.9u
TEXT -96 344 Left 2 !.tran 0 10 2 1e-3
