Version 4
SHEET 1 3492 680
WIRE 288 -80 -32 -80
WIRE 592 -80 288 -80
WIRE 704 -80 592 -80
WIRE 816 -80 704 -80
WIRE 896 -80 816 -80
WIRE 960 -80 896 -80
WIRE 1200 -80 960 -80
WIRE 1520 -80 1200 -80
WIRE 2720 -80 2416 -80
WIRE 2880 -80 2720 -80
WIRE 3136 -80 2960 -80
WIRE 3424 -80 3136 -80
WIRE -32 -32 -32 -80
WIRE 288 -32 288 -80
WIRE 1200 -32 1200 -80
WIRE 1520 -32 1520 -80
WIRE 592 -16 592 -80
WIRE 2416 -16 2416 -80
WIRE 2720 -16 2720 -80
WIRE -80 48 -128 48
WIRE 240 48 192 48
WIRE 1152 48 1104 48
WIRE 1472 48 1424 48
WIRE -496 112 -896 112
WIRE -352 112 -496 112
WIRE -32 112 -32 64
WIRE -32 112 -272 112
WIRE 1200 112 1200 64
WIRE 1712 112 1200 112
WIRE 1856 112 1792 112
WIRE 1936 112 1856 112
WIRE 2416 112 2416 48
WIRE 2416 112 2048 112
WIRE 704 128 704 -80
WIRE 816 128 816 -80
WIRE 896 128 896 -80
WIRE 960 128 960 -80
WIRE 1856 128 1856 112
WIRE 1936 128 1936 112
WIRE 2048 128 2048 112
WIRE 3136 128 3136 -80
WIRE 3424 128 3424 -80
WIRE -896 160 -896 112
WIRE -496 192 -496 112
WIRE -352 192 -496 192
WIRE 288 192 288 64
WIRE 288 192 -272 192
WIRE 1520 224 1520 64
WIRE 1728 224 1520 224
WIRE 1856 224 1856 208
WIRE 1856 224 1792 224
WIRE 1936 224 1936 208
WIRE 1936 224 1856 224
WIRE 2048 224 2048 208
WIRE 2720 224 2720 48
WIRE 2720 224 2048 224
WIRE -896 288 -896 240
WIRE 592 288 592 48
WIRE 592 288 -896 288
WIRE -32 304 -32 112
WIRE 288 304 288 192
WIRE 1200 304 1200 112
WIRE 1520 304 1520 224
WIRE 592 320 592 288
WIRE 2416 320 2416 112
WIRE 2720 320 2720 224
WIRE -896 352 -896 288
WIRE -80 384 -128 384
WIRE 240 384 192 384
WIRE 1152 384 1104 384
WIRE 1472 384 1424 384
WIRE -32 448 -32 400
WIRE 288 448 288 400
WIRE 288 448 -32 448
WIRE 592 448 592 384
WIRE 592 448 288 448
WIRE 704 448 704 192
WIRE 704 448 592 448
WIRE 816 448 816 192
WIRE 816 448 704 448
WIRE 896 448 896 192
WIRE 896 448 816 448
WIRE 960 448 960 192
WIRE 960 448 896 448
WIRE 1200 448 1200 400
WIRE 1200 448 960 448
WIRE 1520 448 1520 400
WIRE 1520 448 1200 448
WIRE 2416 448 2416 384
WIRE 2720 448 2720 384
WIRE 2720 448 2416 448
WIRE 3136 448 3136 192
WIRE 3136 448 2720 448
WIRE 3424 448 3424 208
WIRE 3424 448 3136 448
FLAG -896 352 0
SYMBOL nmos -80 -32 R0
SYMATTR InstName M1
SYMATTR Value IXFX90N30
SYMBOL diode 608 48 R180
WINDOW 0 24 64 Left 2
WINDOW 3 24 0 Left 2
SYMATTR InstName D1
SYMATTR Value 1N4007
SYMBOL diode 608 384 R180
WINDOW 0 24 64 Left 2
WINDOW 3 24 0 Left 2
SYMATTR InstName D2
SYMATTR Value 1N4007
SYMBOL diode 2432 48 R180
WINDOW 0 24 64 Left 2
WINDOW 3 24 0 Left 2
SYMATTR InstName D3
SYMATTR Value 1N4007
SYMBOL diode 2432 384 R180
WINDOW 0 24 64 Left 2
WINDOW 3 24 0 Left 2
SYMATTR InstName D4
SYMATTR Value 1N4007
SYMBOL diode 2736 48 R180
WINDOW 0 24 64 Left 2
WINDOW 3 24 0 Left 2
SYMATTR InstName D5
SYMATTR Value 1N4007
SYMBOL diode 2736 384 R180
WINDOW 0 24 64 Left 2
WINDOW 3 24 0 Left 2
SYMATTR InstName D6
SYMATTR Value 1N4007
SYMBOL polcap 688 128 R0
WINDOW 3 24 56 Left 2
SYMATTR InstName C1
SYMATTR Value 180µ
SYMATTR Description Capacitor
SYMATTR Type cap
SYMATTR SpiceLine V=450 Irms=1 Rser=0.178 Lser=13.988n mfg="Würth Elektronik" pn="861141484012 WCAP-AI3H 25x40" type="Al electrolytic"
SYMBOL polcap 800 128 R0
WINDOW 3 24 56 Left 2
SYMATTR InstName C2
SYMATTR Value 1200µ
SYMATTR Description Capacitor
SYMATTR Type cap
SYMATTR SpiceLine V=10 Irms=1.26 Rser=0.052 Lser=0 mfg="Chemi-Con" pn="LXF10VB122M10X30LL" type="Al electrolytic"
SYMBOL polcap 880 128 R0
WINDOW 3 24 56 Left 2
SYMATTR InstName C3
SYMATTR Value 2200µ
SYMATTR Description Capacitor
SYMATTR Type cap
SYMATTR SpiceLine V=16 Irms=1.95 Rser=0.03 Lser=0 mfg="Chemi-Con" pn="LXF16VB222M12X30LL" type="Al electrolytic"
SYMBOL polcap 944 128 R0
WINDOW 3 24 56 Left 2
SYMATTR InstName C4
SYMATTR Value 1500µ
SYMATTR Description Capacitor
SYMATTR Type cap
SYMATTR SpiceLine V=16 Irms=1.69 Rser=0.034 Lser=0 mfg="Chemi-Con" pn="LXF16VB152M12X20LL" type="Al electrolytic"
SYMBOL ind 1696 128 R270
WINDOW 0 32 56 VTop 2
WINDOW 3 5 56 VBottom 2
SYMATTR InstName L1
SYMATTR Value 1000n
SYMATTR SpiceLine Ipk=4.8 Rser=0.0193 Rpar=3306 Cpar=964f mfg="Bourns, Inc." pn="SDE0403A-1R0M"
SYMBOL ind 1840 112 R0
SYMATTR InstName L2
SYMATTR Value 56n
SYMATTR SpiceLine Ipk=1 Rser=0.18 Rpar=34883.3 Cpar=0 mfg="Coilcraft" pn="1008HS-560"
SYMBOL ind2 1920 112 R0
WINDOW 0 39 32 Left 2
WINDOW 3 -45 126 Left 2
SYMATTR InstName L3
SYMATTR Value 1000n
SYMATTR Type ind
SYMATTR SpiceLine Ipk=4.8 Rser=0.0193 Rpar=3306 Cpar=964f mfg="Bourns, Inc." pn="SDE0403A-1R0M"
SYMBOL ind2 2064 224 R180
WINDOW 0 36 80 Left 2
WINDOW 3 -51 -14 Left 2
SYMATTR InstName L4
SYMATTR Value 1000n
SYMATTR Type ind
SYMATTR SpiceLine Ipk=4.8 Rser=0.0193 Rpar=3306 Cpar=964f mfg="Bourns, Inc." pn="SDE0403A-1R0M"
SYMBOL cap 1792 208 R90
WINDOW 0 0 32 VBottom 2
WINDOW 3 32 32 VTop 2
SYMATTR InstName C5
SYMATTR Value 2.2µ
SYMATTR SpiceLine V=100 Irms=5.73 Rser=0.0196416 Lser=0 mfg="KEMET" pn="C1210C225K1RAC" type="X7R"
SYMBOL ind 2864 -64 R270
WINDOW 0 32 56 VTop 2
WINDOW 3 5 56 VBottom 2
SYMATTR InstName L5
SYMATTR Value 2.2µ
SYMATTR SpiceLine Ipk=3.3 Rser=0.032 Rpar=8999 Cpar=2.181p mfg="Bourns, Inc." pn="SDE0403A-2R2M"
SYMBOL cap 3120 128 R0
SYMATTR InstName C6
SYMATTR Value 10µ
SYMATTR SpiceLine V=600 Irms=11.8 Rser=0.014 Lser=30n mfg="Würth Elektronik" pn="890764427009CS WCAP-FTDB 27.5x32x30x16x4" type="Box"
SYMBOL res 3408 112 R0
SYMATTR InstName R1
SYMATTR Value 100
SYMATTR SpiceLine tol=1 pwr=0.1
SYMBOL voltage -896 144 R0
WINDOW 123 0 0 Left 0
WINDOW 39 0 0 Left 0
SYMATTR InstName V1
SYMATTR Value SINE(0 230 50 0 0 0 10)
SYMBOL ind2 -256 96 R90
WINDOW 0 5 89 VBottom 2
WINDOW 3 18 -25 VTop 2
SYMATTR InstName L6
SYMATTR Value 150m
SYMATTR Type ind
SYMBOL ind2 -368 208 R270
WINDOW 0 -24 22 VTop 2
WINDOW 3 45 137 VBottom 2
SYMATTR InstName L7
SYMATTR Value 150m
SYMATTR Type ind
SYMBOL nmos 240 -32 R0
SYMATTR InstName M2
SYMATTR Value IXFX90N30
SYMBOL nmos -80 304 R0
SYMATTR InstName M3
SYMATTR Value IXFX90N30
SYMBOL nmos 240 304 R0
SYMATTR InstName M4
SYMATTR Value IXFX90N30
SYMBOL nmos 1152 -32 R0
SYMATTR InstName M5
SYMATTR Value IXFX90N30
SYMBOL nmos 1472 -32 R0
SYMATTR InstName M6
SYMATTR Value IXFX90N30
SYMBOL nmos 1152 304 R0
SYMATTR InstName M7
SYMATTR Value IXFX90N30
SYMBOL nmos 1472 304 R0
SYMATTR InstName M8
SYMATTR Value IXFX90N30
TEXT -928 464 Left 2 !.tran 0 10 0 1e-3
TEXT 1920 96 Left 2 !K2 L3 L4 0.998
TEXT -384 56 Left 2 !K1 L6 L7 0.998
