Version 4
SHEET 1 2692 3464
WIRE -2768 1824 -3008 1824
WIRE -2672 1824 -2768 1824
WIRE -2512 1824 -2592 1824
WIRE -2336 1824 -2432 1824
WIRE -2160 1824 -2336 1824
WIRE -2096 1824 -2160 1824
WIRE -1888 1824 -1984 1824
WIRE -1760 1824 -1888 1824
WIRE -1600 1824 -1680 1824
WIRE -1456 1824 -1520 1824
WIRE -2336 1856 -2336 1824
WIRE -2336 1856 -2400 1856
WIRE -2288 1856 -2336 1856
WIRE -2400 1904 -2400 1856
WIRE -2288 1904 -2288 1856
WIRE -1456 1904 -1456 1824
WIRE -3008 1920 -3008 1824
WIRE -2096 1920 -2096 1824
WIRE -2064 1920 -2096 1920
WIRE -1984 1920 -1984 1824
WIRE -1984 1920 -2016 1920
WIRE -2064 2000 -2096 2000
WIRE -1984 2000 -2016 2000
WIRE -2400 2032 -2400 1984
WIRE -2336 2032 -2400 2032
WIRE -2288 2032 -2288 1984
WIRE -2288 2032 -2336 2032
WIRE -3008 2064 -3008 2000
WIRE -2336 2064 -2336 2032
WIRE -2336 2064 -3008 2064
WIRE -2096 2064 -2096 2000
WIRE -2096 2064 -2336 2064
WIRE -1984 2064 -1984 2000
WIRE -1456 2064 -1456 1984
WIRE -1456 2064 -1984 2064
WIRE -2336 2112 -2336 2064
FLAG -2336 2112 0
FLAG -2768 1824 Vin
FLAG -2160 1824 VW1
FLAG -1888 1824 VW2
FLAG -1456 1824 Vo
SYMBOL voltage -3008 1904 R0
WINDOW 3 44 50 Left 2
WINDOW 123 47 85 Left 2
WINDOW 39 45 113 Left 2
SYMATTR Value SINE(0 400 100E3 0 0 0)
SYMATTR Value2 AC 1 0
SYMATTR SpiceLine Rser=0 Cpar=0
SYMATTR InstName V5
SYMBOL ind2 -2000 2016 R180
WINDOW 0 -40 84 Left 2
WINDOW 3 87 62 Left 2
SYMATTR InstName W2
SYMATTR Value 1.2u
SYMATTR Type ind
SYMATTR SpiceLine Rser=0
SYMBOL ind2 -2080 2016 M180
WINDOW 0 -46 83 Left 2
WINDOW 3 102 61 Left 2
SYMATTR InstName W1
SYMATTR Value 1u
SYMATTR Type ind
SYMATTR SpiceLine Rser=0
SYMBOL res -1472 1888 R0
SYMATTR InstName R4
SYMATTR Value 1
SYMBOL ind2 -2304 1888 R0
SYMATTR InstName Lm
SYMATTR Value 0.00001
SYMATTR Type ind
SYMBOL res -2416 1888 R0
SYMATTR InstName Rc
SYMATTR Value 100
SYMBOL res -2576 1808 R90
WINDOW 0 0 56 VBottom 2
WINDOW 3 32 56 VTop 2
SYMATTR InstName Rp
SYMATTR Value 0.001
SYMBOL ind2 -2528 1840 R270
WINDOW 0 32 56 VTop 2
WINDOW 3 4 56 VBottom 2
SYMATTR InstName Lp
SYMATTR Value 1e-9
SYMATTR Type ind
SYMBOL res -1664 1808 R90
WINDOW 0 0 56 VBottom 2
WINDOW 3 32 56 VTop 2
SYMATTR InstName Rs
SYMATTR Value 10
SYMBOL ind2 -1616 1840 R270
WINDOW 0 32 56 VTop 2
WINDOW 3 4 56 VBottom 2
SYMATTR InstName Ls
SYMATTR Value 1e-9
SYMATTR Type ind
TEXT -3008 1744 Left 3 ;Real Trafo Model
TEXT -3032 2104 Left 2 !.tran 0 10 0 1e-3
TEXT -2120 2088 Left 2 !K1 W1 W2 1
TEXT -2072 1872 Left 2 ;TRAFO
